examples/PvDemo/data/anu/anu_a_mod.m
function mpc = anu_a_mod
%ANU_A_MOD

%% MATPOWER Case Format : Version 2
mpc.version = '2';

%%-----  Power Flow Data  -----%%
%% system MVA base
mpc.baseMVA = 100;

%% bus data
%	bus_i	type	Pd	Qd	Gs	Bs	area	Vm	Va	baseKV	zone	Vmax	Vmin
mpc.bus = [
	1	1	0	0	0	0	8	0.991337022	29.7731899	0.415	2	1.1	0.9;
	2	1	0	0	0	0	8	0.991337022	29.7731899	0.415	2	1.1	0.9;
	3	1	0	0	0	0	8	0.988651966	29.6643457	0.415	2	1.1	0.9;
	4	1	0	0	0	0	8	0.988651966	29.6643457	0.415	2	1.1	0.9;
	5	1	0	0	0	0	8	0.989728689	29.6700123	0.415	2	1.1	0.9;
	6	1	0	0	0	0	8	0.989728689	29.6700123	0.415	2	1.1	0.9;
	7	1	0	0	0	0	8	0.986736276	29.676027	0.415	2	1.1	0.9;
	8	1	0	0	0	0	8	0.988174688	29.6836092	0.415	2	1.1	0.9;
	9	1	0	0	0	0	8	0.988174688	29.6836092	0.415	2	1.1	0.9;
	10	1	0	0	0	0	8	0.986575102	29.6536011	0.415	2	1.1	0.9;
	11	1	0	0	0	0	8	0.987654091	29.6592914	0.415	2	1.1	0.9;
	12	1	0	0	0	0	8	0.985284235	29.6767892	0.415	2	1.1	0.9;
	13	1	0	0	0	0	8	0.985284235	29.6767892	0.415	2	1.1	0.9;
	14	1	0	0	0	0	8	0.986364638	29.6824945	0.415	2	1.1	0.9;
	15	1	0	0	0	0	8	0.986364638	29.6824945	0.415	2	1.1	0.9;
	16	1	0	0	0	0	8	0.986537171	29.6470125	0.415	2	1.1	0.9;
	17	1	0	0	0	0	8	0.987975873	29.6545978	0.415	2	1.1	0.9;
	18	1	0	0	0	0	8	0.986537759	29.6470545	0.415	2	1.1	0.9;
	19	1	0	0	0	0	8	0.987976461	29.6546398	0.415	2	1.1	0.9;
	20	1	0	0	0	0	8	0.990341035	29.6257675	0.415	2	1.1	0.9;
	21	1	0	0	0	0	8	0.990335312	29.6260991	0.415	2	1.1	0.9;
	22	1	0	0	0	0	8	0.98795956	29.6475285	0.415	2	1.1	0.9;
	23	1	0	0	0	0	8	0.989037037	29.653203	0.415	2	1.1	0.9;
	24	1	0	0	0	0	8	0.987959696	29.6475382	0.415	2	1.1	0.9;
	25	1	0	0	0	0	8	0.989037173	29.6532127	0.415	2	1.1	0.9;
	26	1	0	0	0	0	8	0.988477401	29.6437484	0.415	2	1.1	0.9;
	27	1	0	0	0	0	8	0.989554313	29.6494169	0.415	2	1.1	0.9;
	28	1	0	0	0	0	8	0.98749541	29.639159	0.415	2	1.1	0.9;
	29	1	0	0	0	0	8	0.988824381	29.6428306	0.415	2	1.1	0.9;
	30	1	0	0	0	0	8	0.989900916	29.6484952	0.415	2	1.1	0.9;
	31	1	0	0	0	0	8	0.985298178	29.6683694	0.415	2	1.1	0.9;
	32	1	0	0	0	0	8	0.98673869	29.6759737	0.415	2	1.1	0.9;
	33	1	0	0	0	0	8	0.985298084	29.6683629	0.415	2	1.1	0.9;
	34	1	0	0	0	0	8	0.986738595	29.6759672	0.415	2	1.1	0.9;
	35	1	0	0	0	0	8	0.984026531	29.6854959	0.415	2	1.1	0.9;
	36	1	0	0	0	0	8	0.985108315	29.6912157	0.415	2	1.1	0.9;
	37	1	0	0	0	0	8	0.989457453	29.6459233	0.415	2	1.1	0.9;
	38	1	0	0	0	0	8	0.990533299	29.6515806	0.415	2	1.1	0.9;
	39	1	0	0	0	0	8	0.989456824	29.6458782	0.415	2	1.1	0.9;
	40	1	0	0	0	0	8	0.99053267	29.6515355	0.415	2	1.1	0.9;
	41	1	0	0	0	0	8	0.991896008	29.6287092	0.415	2	1.1	0.9;
	42	1	0	0	0	0	8	0.98848011	29.709647	0.415	2	1.1	0.9;
	43	1	0	0	0	0	8	0.989958598	29.6503846	0.415	2	1.1	0.9;
	44	1	0	0	0	0	8	0.988550462	29.7102153	0.415	2	1.1	0.9;
	45	1	0	0	0	0	8	0.990768433	29.6268105	0.415	2	1.1	0.9;
	46	1	0	0	0	0	8	0.983494454	29.6815755	0.415	2	1.1	0.9;
	47	1	0	0	0	0	8	0.984937608	29.6892077	0.415	2	1.1	0.9;
	48	1	0	0	0	0	8	0.983494923	29.6816028	0.415	2	1.1	0.9;
	49	1	0	0	0	0	8	0.984938076	29.689235	0.415	2	1.1	0.9;
	50	1	0	0	0	0	8	0.986818725	29.6973256	0.415	2	1.1	0.9;
	51	1	0	0	0	0	8	0.988853555	29.6428343	0.415	2	1.1	0.9;
	52	1	0	0	0	0	8	0.989930058	29.6484985	0.415	2	1.1	0.9;
	53	1	0	0	0	0	8	0.987930847	29.6476012	0.415	2	1.1	0.9;
	54	1	0	0	0	0	8	0.989008355	29.6532759	0.415	2	1.1	0.9;
	55	1	0	0	0	0	8	0.990259256	29.6469278	0.415	2	1.1	0.9;
	56	1	0	0	0	0	8	0.991461676	29.6341381	0.415	2	1.1	0.9;
	57	1	0	0	0	0	8	0.991461676	29.6341381	0.415	2	1.1	0.9;
	58	1	0	0	0	0	8	0.987242497	29.6344314	0.415	2	1.1	0.9;
	59	1	0	0	0	0	8	0.987961343	29.6382209	0.415	2	1.1	0.9;
	60	1	0	0	0	0	8	0.986260352	29.6567172	0.415	2	1.1	0.9;
	61	1	0	0	0	0	8	0.987339685	29.6624112	0.415	2	1.1	0.9;
	62	1	0	0	0	0	8	0.972637104	29.1812707	0.415	2	1.1	0.9;
	63	1	0	0	0	0	8	0.979933599	29.220055	0.415	2	1.1	0.9;
	64	1	0	0	0	0	8	0.990387753	29.6256077	0.415	2	1.1	0.9;
	65	1	0	0	0	0	8	0.990387753	29.6256077	0.415	2	1.1	0.9;
	66	1	0	0	0	0	8	0.986024098	29.6584921	0.415	2	1.1	0.9;
	67	1	0	0	0	0	8	0.98710369	29.6641888	0.415	2	1.1	0.9;
	68	1	0	0	0	0	8	0.986370999	29.6485849	0.415	2	1.1	0.9;
	69	1	0	0	0	0	8	0.987809944	29.6561728	0.415	2	1.1	0.9;
	70	1	0	0	0	0	8	0.983039979	29.6089541	0.415	2	1.1	0.9;
	71	1	0	0	0	0	8	0.986979728	29.7156255	0.433	2	1.1	0.9;
	72	1	0	0	0	0	8	0.986975213	29.7155927	0.433	2	1.1	0.9;
	73	1	0	0	0	0	8	0.99226081	29.6409823	0.415	2	1.1	0.9;
	74	1	0	0	0	0	8	0.992387596	29.6426715	0.415	2	1.1	0.9;
	75	1	0	0	0	0	8	0.987610133	29.7790886	0.415	2	1.1	0.9;
	76	1	0	0	0	0	8	0.988687992	29.7847671	0.415	2	1.1	0.9;
	77	1	0	0	0	0	8	0.987130403	29.6955589	11	2	1.1	0.9;
	78	1	0	0	0	0	8	0.98713245	29.6955697	11	2	1.1	0.9;
	79	1	0	0	0	0	8	0.985116143	29.687569	0.433	2	1.1	0.9;
	80	1	0	0	0	0	8	0.98524849	29.6882688	0.433	2	1.1	0.9;
	81	1	0	0	0	0	8	0.987466861	29.6658009	0.433	2	1.1	0.9;
	82	1	0	0	0	0	8	0.987526875	29.6664973	0.433	2	1.1	0.9;
	83	1	0	0	0	0	8	0.98561048	29.6873622	0.415	2	1.1	0.9;
	84	1	0	0	0	0	8	0.987050535	29.6949618	0.415	2	1.1	0.9;
	85	1	0	0	0	0	8	0.985620626	29.6874305	0.415	2	1.1	0.9;
	86	1	0	0	0	0	8	0.987060666	29.6950299	0.415	2	1.1	0.9;
	87	1	0	0	0	0	8	0.985751057	29.6881686	0.433	2	1.1	0.9;
	88	1	0	0	0	0	8	0.987073684	29.6951483	0.433	2	1.1	0.9;
	89	1	0	0	0	0	8	0.986057955	29.6721025	0.433	2	1.1	0.9;
	90	1	0	0	0	0	8	0.98704962	29.6773355	0.433	2	1.1	0.9;
	91	1	0	0	0	0	8	0.983949235	29.6806202	0.433	2	1.1	0.9;
	92	1	0	0	0	0	8	0.985274284	29.6876255	0.433	2	1.1	0.9;
	93	1	0	0	0	0	8	0.993195857	0.019380814	11	2	1.1	0.9;
	94	1	0	0	0	0	8	0.993027776	0.0177356875	11	2	1.1	0.9;
	95	1	0	0	0	0	9	0.999969381	-0.000120246552	11	2	1.1	0.9;
	96	1	0	0	0	0	9	0.999970043	-0.000140429556	11	2	1.1	0.9;
	97	1	0	0	0	0	9	0.999977992	-0.000200114252	11	2	1.1	0.9;
	98	1	0	0	0	0	9	0.999978456	-0.000217963858	11	2	1.1	0.9;
	99	3	0	0	0	0	9	1	0	11	2	1.1	0.9;
	100	1	0	0	0	0	8	0.993009575	0.0175274019	11	2	1.1	0.9;
	101	1	0	0	0	0	8	0.993120613	0.0185206585	11	2	1.1	0.9;
	102	1	0	0	0	0	8	0.993091399	0.0181847545	11	2	1.1	0.9;
	103	1	0	0	0	0	8	0.993079254	0.0180410768	11	2	1.1	0.9;
	104	1	0	0	0	0	8	0.993265589	0.0190626883	11	2	1.1	0.9;
	105	1	0	0	0	0	8	0.99751633	0.00436079749	11	2	1.1	0.9;
	106	1	0	0	0	0	8	0.997511687	0.00436034407	11	2	1.1	0.9;
	107	1	0	0	0	0	8	0.997500073	0.00431234036	11	2	1.1	0.9;
	108	1	0	0	0	0	9	0.997516134	0.00434790683	11	2	1.1	0.9;
	109	1	0	0	0	0	8	0.995893397	0.00277119337	11	2	1.1	0.9;
	110	1	0	0	0	0	8	0.995195578	0.00660487079	11	2	1.1	0.9;
	111	1	0	0	0	0	8	0.993537781	0.0169503717	11	2	1.1	0.9;
	112	1	0	0	0	0	8	0.993099712	0.0545449811	11	2	1.1	0.9;
	113	1	0	0	0	0	8	0.993009629	0.0175252598	11	2	1.1	0.9;
	114	1	0	0	0	0	8	0.991230773	0.04779752	11	2	1.1	0.9;
	115	1	0	0	0	0	8	0.995397616	0.0048259308	11	2	1.1	0.9;
	116	1	0	0	0	0	8	0.995910987	0.0228713267	11	2	1.1	0.9;
	117	1	0	0	0	0	8	0.994447508	0.0398921702	11	2	1.1	0.9;
	118	1	0	0	0	0	8	0.993849486	0.0136266395	11	2	1.1	0.9;
	119	1	0	0	0	0	8	0.992568201	0.0377518879	11	2	1.1	0.9;
	120	1	0	0	0	0	8	0.994249968	0.0110234342	11	2	1.1	0.9;
	121	1	0	0	0	0	8	0.994250551	0.0110650517	11	2	1.1	0.9;
	122	1	0	0	0	0	8	0.995892689	0.00282746648	11	2	1.1	0.9;
	123	1	0	0	0	0	8	0.995893655	0.00283555235	11	2	1.1	0.9;
	124	1	0	0	0	0	8	0.995223696	0.0065531638	11	2	1.1	0.9;
	125	1	0	0	0	0	8	0.99522383	0.00656274525	11	2	1.1	0.9;
	126	1	0	0	0	0	8	0.993069908	0.0180563662	11	2	1.1	0.9;
	127	1	0	0	0	0	8	0.99608213	0.00123211275	11	2	1.1	0.9;
	128	1	0	0	0	0	8	0.993020724	0.0332892505	11	2	1.1	0.9;
	129	1	0	0	0	0	8	0.99302063	0.033282832	11	2	1.1	0.9;
	130	1	0	0	0	0	8	0.991319856	0.047374988	11	2	1.1	0.9;
	131	1	0	0	0	0	8	0.996710533	0.003869666	11	2	1.1	0.9;
	132	1	0	0	0	0	8	0.996709909	0.00382502267	11	2	1.1	0.9;
	133	1	0	0	0	0	8	0.997445538	0.0042675719	11	2	1.1	0.9;
	134	1	0	0	0	0	8	0.993921547	0.0460182321	11	2	1.1	0.9;
	135	1	0	0	0	0	8	0.99300949	0.0175303201	11	2	1.1	0.9;
	136	1	0	0	0	0	8	0.995519073	0.0274061619	11	2	1.1	0.9;
	137	1	0	0	0	0	8	0.993079518	0.0180549863	11	2	1.1	0.9;
	138	1	0	0	0	0	8	0.996324327	0.00321942675	11	2	1.1	0.9;
	139	1	0	0	0	0	8	0.991231236	0.0478246497	11	2	1.1	0.9;
	140	1	0	0	0	0	8	0.991231702	0.0478515897	11	2	1.1	0.9;
	141	1	0	0	0	0	8	0.993100245	0.0545834663	11	2	1.1	0.9;
	142	1	0	0	0	0	8	0.991230771	0.0477977096	11	2	1.1	0.9;
	143	1	0	0	0	0	8	0.993099978	0.0545642237	11	2	1.1	0.9;
	144	1	0	0	0	0	8	0.991231796	0.0478580314	11	2	1.1	0.9;
	145	1	0	0	0	0	8	0.993100605	0.0546091263	11	2	1.1	0.9;
	146	1	0	0	0	0	8	0.996111088	0.00121477774	11	2	1.1	0.9;
	147	1	0	0	0	0	8	0.995195194	0.00664650859	11	2	1.1	0.9;
	148	1	0	0	0	0	8	0.996558964	0.00360126235	11	2	1.1	0.9;
	149	1	0	0	0	0	8	0.997013656	0.0100237706	11	2	1.1	0.9;
	150	1	0	0	0	0	8	0.99353765	0.0170125794	11	2	1.1	0.9;
	151	1	0	0	0	0	8	0.99353707	0.0169709316	11	2	1.1	0.9;
	152	1	0	0	0	0	8	0.993537362	0.0169917555	11	2	1.1	0.9;
	153	1	0	0	0	0	8	0.993191826	0.0312202936	11	2	1.1	0.9;
	154	1	0	0	0	0	8	0.992725602	0.0575376391	11	2	1.1	0.9;
	155	1	0	0	0	0	8	0.995945799	0.00230439335	11	2	1.1	0.9;
	156	1	0	0	0	0	8	0.993302568	0.0189172474	11	2	1.1	0.9;
	157	1	0	0	0	0	8	0.994085102	0.0127175662	11	2	1.1	0.9;
	158	1	0	0	0	0	8	0.992964191	0.0558681427	11	2	1.1	0.9;
	159	1	0	0	0	0	8	0.992959704	0.0558383613	11	2	1.1	0.9;
	160	1	0	0	0	0	8	0.997232344	0.00374070453	11	2	1.1	0.9;
	161	1	0	0	0	0	8	0.993384733	0.0520367655	11	2	1.1	0.9;
	162	1	0	0	0	0	8	0.993401966	0.052132918	11	2	1.1	0.9;
	163	1	0	0	0	0	8	0.991530976	0.0462308834	11	2	1.1	0.9;
	164	1	0	0	0	0	8	0.991961227	0.0429241653	11	2	1.1	0.9;
	165	1	0	0	0	0	8	0.993330566	0.0520527056	11	2	1.1	0.9;
	166	1	0	0	0	0	8	0.993340632	0.052113478	11	2	1.1	0.9;
	167	1	0	0	0	0	8	0.993352749	0.0521842443	11	2	1.1	0.9;
	168	1	0	0	0	0	8	0.993039572	0.0178077932	11	2	1.1	0.9;
	169	1	0	0	0	0	8	0.991564921	0.0459599875	11	2	1.1	0.9;
	170	1	0	0	0	0	9	0.997540597	0.00448371417	11	2	1.1	0.9;
	171	1	0	0	0	0	9	0.997517359	0.00443410805	11	2	1.1	0.9;
	173	1	0	0	0	0	8	0.995244954	0.00653579313	11	2	1.1	0.9;
	174	1	0	0	0	0	8	0.995659483	0.0257787507	11	2	1.1	0.9;
	175	1	0	0	0	0	8	0.993954002	0.0456383604	11	2	1.1	0.9;
	176	1	0	0	0	0	8	0.993557634	0.0167915419	11	2	1.1	0.9;
	177	1	0	0	0	0	8	0.997241215	0.00375929516	11	2	1.1	0.9;
	178	1	0	0	0	0	8	0.996490198	0.0161495196	11	2	1.1	0.9;
	179	1	0	0	0	0	8	0.992871842	0.0356701374	11	2	1.1	0.9;
	180	1	0	0	0	0	8	0.994102163	0.0126483131	11	2	1.1	0.9;
	181	1	0	0	0	0	8	0.995893275	0.00278434514	11	2	1.1	0.9;
	182	1	0	0	0	0	8	0.995206717	0.00660792249	11	2	1.1	0.9;
	183	1	0	0	0	0	8	0.996034654	0.00172705637	11	2	1.1	0.9;
	184	1	0	0	0	0	8	0.991359664	0.0471718018	11	2	1.1	0.9;
	185	1	0	0	0	0	8	0.993826488	0.0471322671	11	2	1.1	0.9;
	186	1	0	0	0	0	8	0.993009627	0.0175255841	11	2	1.1	0.9;
	187	1	0	0	0	0	8	0.995384516	0.0289635792	11	2	1.1	0.9;
	188	1	0	0	0	0	8	0.992987842	0.0557710129	11	2	1.1	0.9;
	189	1	0	0	0	0	8	0.991266314	0.0476680922	11	2	1.1	0.9;
	190	1	0	0	0	0	8	0.996297461	0.00109119941	11	2	1.1	0.9;
	191	1	0	0	0	0	8	0.993527401	0.0170758801	11	2	1.1	0.9;
	192	1	0	0	0	0	8	0.993537525	0.0169782209	11	2	1.1	0.9;
	193	1	0	0	0	0	8	0.993163487	0.031553525	11	2	1.1	0.9;
	194	1	0	0	0	0	8	0.995920513	0.00255523011	11	2	1.1	0.9;
	195	1	0	0	0	0	8	0.993052364	0.0177446012	11	2	1.1	0.9;
	196	1	0	0	0	0	8	0.994070127	0.0127738583	11	2	1.1	0.9;
	197	1	0	0	0	0	8	0.9928426	0.0562224466	11	2	1.1	0.9;
	198	1	0	0	0	0	8	0.997080978	0.00435064325	11	2	1.1	0.9;
	199	1	0	0	0	0	8	0.992452178	0.0394027901	11	2	1.1	0.9;
	200	1	0	0	0	0	8	0.993307308	0.0523083323	11	2	1.1	0.9;
	201	1	0	0	0	0	8	0.99303574	0.0178248362	11	2	1.1	0.9;
	202	1	0	0	0	0	9	0.999483194	-0.00229269419	11	2	1.1	0.9;
	203	1	0	0	0	0	9	0.999733425	-0.00138239115	11	2	1.1	0.9;
	204	1	0	0	0	0	9	0.99967634	-0.00310639206	11	2	1.1	0.9;
	205	1	0	0	0	0	9	0.9998694	-0.00138414728	11	2	1.1	0.9;
	206	1	0	0	0	0	8	0.995996911	0.00174412173	11	2	1.1	0.9;
	207	1	0	0	0	0	8	0.991508177	0.046421039	11	2	1.1	0.9;
	208	1	0	0	0	0	8	0.993571356	0.0501325875	11	2	1.1	0.9;
	209	1	0	0	0	0	8	0.991284165	0.0475701706	11	2	1.1	0.9;
	210	1	0	0	0	0	8	0.996221926	0.00113106123	11	2	1.1	0.9;
	211	1	0	0	0	0	8	0.993399616	0.0184900445	11	2	1.1	0.9;
	212	1	0	0	0	0	8	0.993537617	0.0169682375	11	2	1.1	0.9;
	213	1	0	0	0	0	8	0.993109146	0.032203049	11	2	1.1	0.9;
	214	1	0	0	0	0	8	0.995900623	0.00276146181	11	2	1.1	0.9;
	215	1	0	0	0	0	8	0.992831353	0.056343822	11	2	1.1	0.9;
	216	1	0	0	0	0	9	0.998416516	0.00111738261	11	2	1.1	0.9;
	217	1	0	0	0	0	9	0.998407062	0.00182712092	11	2	1.1	0.9;
	218	1	0	0	0	0	8	0.997531672	0.00442413336	11	2	1.1	0.9;
	219	1	0	0	0	0	8	0.995196402	0.00664579229	11	2	1.1	0.9;
	220	1	0	0	0	0	8	0.99303647	0.0330931713	11	2	1.1	0.9;
	221	1	0	0	0	0	8	0.992758525	0.0571558574	11	2	1.1	0.9;
	222	1	0	0	0	0	9	0.998237925	0.000352057048	11	2	1.1	0.9;
	223	1	0	0	0	0	9	0.998232352	0.000945681003	11	2	1.1	0.9;
	224	1	0	0	0	0	8	0.997296832	0.00693007893	11	2	1.1	0.9;
	225	1	0	0	0	0	9	0.998128363	0.000713872957	11	2	1.1	0.9;
	226	1	0	0	0	0	9	0.998114246	0.00124648032	11	2	1.1	0.9;
	227	1	0	0	0	0	9	0.997781875	0.00366859135	11	2	1.1	0.9;
	228	1	0	0	0	0	9	0.997777051	0.00386315313	11	2	1.1	0.9;
	229	1	0	0	0	0	8	0.997525636	0.00375231874	11	2	1.1	0.9;
	230	1	0	0	0	0	9	0.997517389	0.00443410804	11	2	1.1	0.9;
	231	1	0	0	0	0	8	0.997525619	0.00375349211	11	2	1.1	0.9;
	232	1	0	0	0	0	9	0.997413955	0.00422434525	11	2	1.1	0.9;
	233	1	0	0	0	0	9	0.996930848	0.00358616494	11	2	1.1	0.9;
	234	1	0	0	0	0	9	0.99623669	0.00274468505	11	2	1.1	0.9;
	235	1	0	0	0	0	8	0.993125594	29.8260443	0.415	2	1.1	0.9;
	236	1	0	0	0	0	9	0.996212938	0.00271637791	11	2	1.1	0.9;
	237	1	0	0	0	0	8	0.993101767	29.8260075	0.415	2	1.1	0.9;
	238	1	0	0	0	0	9	0.995603324	0.00530320902	11	2	1.1	0.9;
	239	1	0	0	0	0	8	0.991543578	29.7737633	0.415	2	1.1	0.9;
	240	1	0	0	0	0	9	0.995602469	0.00524249329	11	2	1.1	0.9;
	241	1	0	0	0	0	8	0.99154272	29.7737022	0.415	2	1.1	0.9;
	242	1	0	0	0	0	9	0.994678672	0.00920882433	11	2	1.1	0.9;
	243	1	0	0	0	0	8	0.991562657	29.8319527	0.415	2	1.1	0.9;
	244	1	0	0	0	0	9	0.99457282	0.00967051974	11	2	1.1	0.9;
	245	1	0	0	0	0	9	0.994473217	0.0101022294	11	2	1.1	0.9;
	246	1	0	0	0	0	9	0.994318809	0.0107681965	11	2	1.1	0.9;
	247	1	0	0	0	0	8	0.99145647	29.8323765	0.415	2	1.1	0.9;
	248	1	0	0	0	0	8	0.991356552	29.8327726	0.415	2	1.1	0.9;
	249	1	0	0	0	0	9	0.99573771	0.00239966394	11	2	1.1	0.9;
	250	1	0	0	0	0	9	0.995596282	0.00398119104	11	2	1.1	0.9;
	251	1	0	0	0	0	9	0.986736276	29.676027	0.415	2	1.1	0.9;
	252	1	0	0	0	0	9	0.985378331	29.6897225	0.415	2	1.1	0.9;
	253	1	0	0	0	0	9	0.986880644	29.7151026	0.433	2	1.1	0.9;
	254	1	0	0	0	0	9	0.986876129	29.7150698	0.433	2	1.1	0.9;
	255	1	0	0	0	0	9	0.997542461	0.00428195182	11	2	1.1	0.9;
	256	1	0	0	0	0	9	0.993167622	0.0538574786	11	2	1.1	0.9;
	257	1	0	0	0	0	8	0.997548069	0.00367504367	11	2	1.1	0.9;
	258	1	0	0	0	0	8	0.991022597	0.0508299967	11	2	1.1	0.9;
	259	1	0	0	0	0	8	0.980893696	29.5477317	0.415	2	1.1	0.9;
	260	1	0	0	0	0	8	0.991022596	0.0508301017	11	2	1.1	0.9;
	261	1	0	0	0	0	9	0.991037858	0.0506690364	11	2	1.1	0.9;
	262	1	0	0	0	0	9	0.991154599	0.0485911075	11	2	1.1	0.9;
	263	1	0	0	0	0	8	0.992690129	0.0577097492	11	2	1.1	0.9;
	264	1	0	0	0	0	8	0.992685051	0.0577351775	11	2	1.1	0.9;
	265	1	0	0	0	0	8	0.992679971	0.057760816	11	2	1.1	0.9;
	266	1	0	0	0	0	8	0.986477121	29.702584	0.415	2	1.1	0.9;
	267	1	0	0	0	0	8	0.985396842	29.6968801	0.415	2	1.1	0.9;
	268	1	0	0	0	0	8	0.992667659	0.0578208437	11	2	1.1	0.9;
	269	1	0	0	0	0	8	0.992655288	0.0578858276	11	2	1.1	0.9;
	270	1	0	0	0	0	8	0.986402547	29.7055814	0.415	2	1.1	0.9;
	271	1	0	0	0	0	8	0.985322186	29.6998766	0.415	2	1.1	0.9;
	272	1	0	0	0	0	9	0.995546578	0.00419549032	11	2	1.1	0.9;
	273	1	0	0	0	0	8	0.990860205	29.738092	0.415	2	1.1	0.9;
	274	1	0	0	0	0	8	0.989784714	29.7324384	0.415	2	1.1	0.9;
	275	1	0	0	0	0	8	0.988693607	29.7850332	0.415	2	1.1	0.9;
	276	1	0	0	0	0	8	0.980893696	29.5477317	0.415	2	1.1	0.9;
	277	1	0	0	0	0	8	0.980893696	29.5477317	0.415	2	1.1	0.9;
	279	1	0	0	0	0	8	0.993091376	0.0181831539	11	2	1.1	0.9;
	280	1	0	0	0	0	8	0.993069861	0.0180531649	11	2	1.1	0.9;
	281	1	0	0	0	0	8	0.993302411	0.0189060364	11	2	1.1	0.9;
	282	1	0	0	0	0	9	0.993009513	0.0175319209	11	2	1.1	0.9;
	283	1	0	0	0	0	9	0.997525636	0.00375231874	11	1	1.1	0.9;
	284	1	0	0	0	0	8	0.995397616	0.0048259308	11	1	1.1	0.9;
	285	1	0	0	0	0	8	0.99302063	0.033282832	11	1	1.1	0.9;
	287	1	0	0	0	0	8	0.995195578	0.00660487079	11	1	1.1	0.9;
	288	1	0	0	0	0	8	0.993100605	0.0546091263	11	1	1.1	0.9;
];

%% generator data
%	bus	Pg	Qg	Qmax	Qmin	Vg	mBase	status	Pmax	Pmin	Pc1	Pc2	Qc1min	Qc1max	Qc2min	Qc2max	ramp_agc	ramp_10	ramp_30	ramp_q	apf	mu_Pmax	mu_Pmin	mu_Qmax	mu_Qmin
mpc.gen = [
	99	7.01646715	5.58307706	9999	-9999	1	178.49875	1	9999	-9999	0	0	0	0	0	0	0	0	0	0	0	0.0000	0.0000	0.0000	0.0000;
];

%% branch data
%	fbus	tbus	r	x	b	rateA	rateB	rateC	ratio	angle	status	angmin	angmax	Pf	Qf	Pt	Qt
mpc.branch = [
	142	114	0.0022078512	0.0009173554	2.99838e-06	0	0	0	0	0	1	-360	360	-0.0000	-0.0003	-0.0000	0.0000;
	183	206	0.0086902479	0.0067980165	2.172724e-05	0	0	0	0	0	1	-360	360	0.2667	0.2110	-0.2667	-0.2131;
	97	204	0.011222479	0.011450579	4.256877e-05	0	0	0	0	0	1	-360	360	1.5428	1.1202	-1.5424	-1.1240;
	223	226	0.0036072727	0.0028218182	9.018856e-06	0	0	0	0	0	1	-360	360	1.9572	1.6756	-1.9570	-1.6763;
	228	170	0.0072145455	0.0056436364	1.803771e-05	0	0	0	0	0	1	-360	360	1.9562	1.6788	-1.9557	-1.6802;
	226	228	0.011060661	0.0071586777	2.981924e-05	0	0	0	0	0	1	-360	360	1.9570	1.6763	-1.9562	-1.6788;
	217	223	0.0047573554	0.0048540496	1.804546e-05	0	0	0	0	0	1	-360	360	1.9575	1.6741	-1.9572	-1.6756;
	203	217	0.040581818	0.031745455	0.0001014621	0	0	0	0	0	1	-360	360	1.9602	1.6661	-1.9575	-1.6741;
	96	203	0.006465124	0.0065965289	2.452331e-05	0	0	0	0	0	1	-360	360	1.9606	1.6641	-1.9602	-1.6661;
	227	170	0.0072145455	0.0056436364	1.803771e-05	0	0	0	0	0	1	-360	360	1.9749	1.7402	-1.9744	-1.7416;
	225	227	0.011151322	0.0072173554	3.006366e-05	0	0	0	0	0	1	-360	360	1.9757	1.7378	-1.9749	-1.7402;
	222	225	0.0032793388	0.0025652893	8.19896e-06	0	0	0	0	0	1	-360	360	1.9759	1.7371	-1.9757	-1.7378;
	127	183	0.012501818	0.0066354545	1.711799e-05	0	0	0	0	0	1	-360	360	0.2667	0.2093	-0.2667	-0.2110;
	216	222	0.0047573554	0.0048540496	1.804546e-05	0	0	0	0	0	1	-360	360	1.9762	1.7357	-1.9759	-1.7371;
	202	216	0.031973554	0.02501157	7.993986e-05	0	0	0	0	0	1	-360	360	1.9784	1.7294	-1.9762	-1.7357;
	95	202	0.01299124	0.013255289	4.927798e-05	0	0	0	0	0	1	-360	360	1.9793	1.7254	-1.9784	-1.7294;
	132	148	0.010729223	0.0090596694	2.126165e-05	0	0	0	0	0	1	-360	360	0.8364	0.6690	-0.8363	-0.6710;
	148	138	0.019912711	0.016814132	3.946019e-05	0	0	0	0	0	1	-360	360	0.7019	0.5575	-0.7017	-0.5613;
	147	110	0.032580496	0.017292397	4.461052e-05	0	0	0	0	0	1	-360	360	0.0000	-0.0044	0.0000	-0.0000;
	193	213	0.01401719	0.0074397521	1.91929e-05	0	0	0	0	0	1	-360	360	0.2674	0.2207	-0.2674	-0.2226;
	179	153	0.014774876	0.0078419008	2.023035e-05	0	0	0	0	0	1	-360	360	-1.4630	-1.2959	1.4636	1.2942;
	153	193	0.0073242975	0.003887438	1.002872e-05	0	0	0	0	0	1	-360	360	0.2674	0.2197	-0.2674	-0.2207;
	59	58	0.5806358	0.5806358	0	0	0	0	0	0	1	-360	360	0.0667	0.0556	-0.0667	-0.0556;
	146	127	0.0048370248	0.0037838017	1.209346e-05	0	0	0	0	0	1	-360	360	0.3670	0.2927	-0.3669	-0.2939;
	61	60	0.5806358	0.5806358	0	0	0	0	0	0	1	-360	360	0.1001	0.0834	-0.1000	-0.0833;
	281	104	0.010021818	0.00696	1.445114e-05	0	0	0	0	0	1	-360	360	0.2336	0.1884	-0.2336	-0.1899;
	67	66	0.5806358	0.5806358	0	0	0	0	0	0	1	-360	360	0.1001	0.0834	-0.1000	-0.0833;
	180	157	0.0014804959	0.0010281818	2.134828e-06	0	0	0	0	0	1	-360	360	0.7350	0.5910	-0.7350	-0.5912;
	157	196	0.0015943802	0.0011072727	2.299046e-06	0	0	0	0	0	1	-360	360	0.6014	0.4784	-0.6013	-0.4786;
	196	118	0.023460165	0.016292727	3.382882e-05	0	0	0	0	0	1	-360	360	0.6013	0.4786	-0.6012	-0.4819;
	69	68	0.5806358	0.5806358	0	0	0	0	0	0	1	-360	360	0.1335	0.1113	-0.1333	-0.1111;
	27	26	0.5806358	0.5806358	0	0	0	0	0	0	1	-360	360	0.1001	0.0834	-0.1000	-0.0833;
	112	188	0.019447273	0.010321818	2.662798e-05	0	0	0	0	0	1	-360	360	0.4008	0.3199	-0.4007	-0.3225;
	30	29	0.5806358	0.5806358	0	0	0	0	0	0	1	-360	360	0.1001	0.0834	-0.1000	-0.0833;
	159	197	0.037581818	0.0261	5.419179e-05	0	0	0	0	0	1	-360	360	0.2005	0.1542	-0.2005	-0.1595;
	63	62	2.903179	2.903179	0	0	0	0	0	0	1	-360	360	0.1343	0.1120	-0.1333	-0.1111;
	173	115	0.035358678	0.018766942	4.841451e-05	0	0	0	0	0	1	-360	360	-0.3006	-0.2456	0.3007	0.2408;
	55	70	2.903179	2.903179	0	0	0	0	0	0	1	-360	360	0.1342	0.1120	-0.1333	-0.1111;
	71	253	0.053336462	0.053336462	0	0	0	0	0	0	1	-360	360	0.1000	0.0833	-0.1000	-0.0833;
	72	254	0.053336462	0.053336462	0	0	0	0	0	0	1	-360	360	0.1000	0.0833	-0.1000	-0.0833;
	197	215	0.0039147107	0.0020777686	5.360178e-06	0	0	0	0	0	1	-360	360	0.2005	0.1595	-0.2005	-0.1600;
	215	221	0.025256198	0.013404959	3.45818e-05	0	0	0	0	0	1	-360	360	0.2005	0.1600	-0.2004	-0.1634;
	210	146	0.014511074	0.011351405	3.628039e-05	0	0	0	0	0	1	-360	360	0.4672	0.3737	-0.4672	-0.3772;
	221	154	0.011365289	0.0060322314	1.556181e-05	0	0	0	0	0	1	-360	360	0.2004	0.1634	-0.2004	-0.1649;
	188	158	0.0037581818	0.00261	5.419179e-06	0	0	0	0	0	1	-360	360	0.4007	0.3225	-0.4007	-0.3230;
	107	177	0.01327514	0.011209421	2.630679e-05	0	0	0	0	0	1	-360	360	1.1711	0.9153	-1.1708	-0.9176;
	177	160	0.0004546281	0.0003838843	9.009175e-07	0	0	0	0	0	1	-360	360	1.1708	0.9176	-1.1708	-0.9177;
	160	198	0.0093385124	0.0064854545	1.346584e-05	0	0	0	0	0	1	-360	360	1.0374	0.8331	-1.0372	-0.8343;
	198	131	0.021185669	0.017889008	4.198276e-05	0	0	0	0	0	1	-360	360	1.0372	0.8343	-1.0368	-0.8382;
	74	73	0.05806358	0.05806358	0	0	0	0	0	0	1	-360	360	0.1333	0.0833	-0.1333	-0.0833;
	199	119	0.0061877686	0.0032842149	8.47254e-06	0	0	0	0	0	1	-360	360	-1.2619	-1.1289	1.2621	1.1282;
	207	163	0.0014804959	0.0010281818	2.134828e-06	0	0	0	0	0	1	-360	360	-0.9268	-0.8641	0.9268	0.8639;
	163	169	0.0019360331	0.0013445455	2.791698e-06	0	0	0	0	0	1	-360	360	-1.0603	-0.9766	1.0604	0.9764;
	190	210	0.00992	0.00776	2.480185e-05	0	0	0	0	0	1	-360	360	0.4672	0.3712	-0.4672	-0.3737;
	164	199	0.023801818	0.01653	3.432147e-05	0	0	0	0	0	1	-360	360	-1.2612	-1.1318	1.2619	1.1289;
	184	207	0.0091821488	0.0071828099	2.295709e-05	0	0	0	0	0	1	-360	360	-0.9267	-0.8663	0.9268	0.8641;
	79	80	0.053336462	0.053336462	0	0	0	0	0	0	1	-360	360	-0.1333	-0.1111	0.1333	0.1111;
	162	208	0.0092185124	0.0048928099	1.262236e-05	0	0	0	0	0	1	-360	360	-1.2694	-1.0482	1.2696	1.0470;
	208	185	0.013890909	0.0073727273	1.901999e-05	0	0	0	0	0	1	-360	360	-1.2696	-1.0470	1.2700	1.0454;
	76	75	0.5806358	0.5806358	0	0	0	0	0	0	1	-360	360	0.1001	0.0834	-0.1000	-0.0833;
	78	77	0.0008264463	0.0008264463	0	0	0	0	0	0	1	-360	360	0.1333	0.1111	-0.1333	-0.1111;
	82	81	0.053336462	0.053336462	0	0	0	0	0	0	1	-360	360	0.0667	0.0444	-0.0667	-0.0444;
	85	86	0.5806358	0.5806358	0	0	0	0	0	0	1	-360	360	-0.1333	-0.1111	0.1335	0.1113;
	149	190	0.077485289	0.094695537	1.39179e-06	0	0	0	0	0	1	-360	360	0.4675	0.3714	-0.4672	-0.3712;
	83	84	0.5806358	0.5806358	0	0	0	0	0	0	1	-360	360	-0.1333	-0.1111	0.1335	0.1113;
	87	88	0.53336462	0.53336462	0	0	0	0	0	0	1	-360	360	-0.1333	-0.1111	0.1335	0.1113;
	106	153	0.14349421	0.099654545	0.0002069141	0	0	0	0	0	1	-360	360	1.8743	1.6150	-1.8654	-1.6294;
	101	195	0.025256281	0.03086595	4.536532e-07	0	0	0	0	0	1	-360	360	0.1335	0.1103	-0.1335	-0.1103;
	195	168	0.0060358678	0.0041918182	8.70353e-06	0	0	0	0	0	1	-360	360	0.1335	0.1103	-0.1335	-0.1112;
	168	201	0.007288595	0.0050618182	1.050992e-05	0	0	0	0	0	1	-360	360	0.0333	0.0267	-0.0333	-0.0277;
	201	94	0.011769917	0.014384132	2.114112e-07	0	0	0	0	0	1	-360	360	0.0333	0.0277	-0.0333	-0.0277;
	89	90	0.53336462	0.53336462	0	0	0	0	0	0	1	-360	360	-0.1000	-0.0833	0.1001	0.0834;
	169	164	0.020157521	0.013999091	2.906651e-05	0	0	0	0	0	1	-360	360	-1.1940	-1.0892	1.1946	1.0867;
	52	51	0.5806358	0.5806358	0	0	0	0	0	0	1	-360	360	0.1001	0.0834	-0.1000	-0.0833;
	218	224	0.027402975	0.01454438	3.752125e-05	0	0	0	0	0	1	-360	360	0.6012	0.4760	-0.6011	-0.4797;
	224	149	0.032959339	0.017493471	4.512924e-05	0	0	0	0	0	1	-360	360	0.6011	0.4797	-0.6009	-0.4841;
	36	35	0.5806358	0.5806358	0	0	0	0	0	0	1	-360	360	0.1001	0.0834	-0.1000	-0.0833;
	220	128	0.0040409917	0.0021447934	5.533087e-06	0	0	0	0	0	1	-360	360	0.2673	0.2251	-0.2673	-0.2257;
	213	220	0.018689587	0.0099196694	2.559053e-05	0	0	0	0	0	1	-360	360	0.2674	0.2226	-0.2673	-0.2251;
	119	179	0.012755041	0.0088581818	1.839237e-05	0	0	0	0	0	1	-360	360	-1.4625	-1.2973	1.4630	1.2959;
	32	31	0.5806358	0.5806358	0	0	0	0	0	0	1	-360	360	0.1335	0.1113	-0.1333	-0.1111;
	34	33	0.5806358	0.5806358	0	0	0	0	0	0	1	-360	360	0.1335	0.1113	-0.1333	-0.1111;
	14	12	0.5806358	0.5806358	0	0	0	0	0	0	1	-360	360	0.1001	0.0834	-0.1000	-0.0833;
	15	13	0.5806358	0.5806358	0	0	0	0	0	0	1	-360	360	0.1001	0.0834	-0.1000	-0.0833;
	130	184	0.0024595041	0.0019239669	6.149219e-06	0	0	0	0	0	1	-360	360	-0.9266	-0.8669	0.9267	0.8663;
	209	130	0.0024595041	0.0019239669	6.149219e-06	0	0	0	0	0	1	-360	360	-0.8264	-0.7828	0.8264	0.7823;
	144	189	0.0023775207	0.0018598347	5.944245e-06	0	0	0	0	0	1	-360	360	-0.8263	-0.7837	0.8264	0.7831;
	189	209	0.0012297521	0.0009619835	3.07461e-06	0	0	0	0	0	1	-360	360	-0.8264	-0.7831	0.8264	0.7828;
	47	46	0.5806358	0.5806358	0	0	0	0	0	0	1	-360	360	0.1335	0.1113	-0.1333	-0.1111;
	49	48	0.5806358	0.5806358	0	0	0	0	0	0	1	-360	360	0.1335	0.1113	-0.1333	-0.1111;
	50	252	0.5806358	0.5806358	0	0	0	0	0	0	1	-360	360	0.1335	0.1113	-0.1333	-0.1111;
	256	145	0.0087133884	0.0046247107	1.193072e-05	0	0	0	0	0	1	-360	360	0.5345	0.4316	-0.5344	-0.4327;
	200	256	0.018184463	0.0096515702	2.489889e-05	0	0	0	0	0	1	-360	360	0.5346	0.4292	-0.5345	-0.4316;
	181	109	0.018310744	0.009718595	2.50718e-05	0	0	0	0	0	1	-360	360	0.0000	-0.0025	0.0000	-0.0000;
	165	200	0.0030307438	0.001608595	4.149816e-06	0	0	0	0	0	1	-360	360	0.5346	0.4288	-0.5346	-0.4292;
	161	167	0.0021638017	0.0015027273	3.120134e-06	0	0	0	0	0	1	-360	360	0.9356	0.7670	-0.9356	-0.7673;
	117	175	0.026897851	0.014276281	3.682961e-05	0	0	0	0	0	1	-360	360	1.2709	1.0413	-1.2702	-1.0445;
	134	185	0.0051775207	0.0027480165	7.089268e-06	0	0	0	0	0	1	-360	360	1.2702	1.0447	-1.2700	-1.0454;
	175	134	0.0017679339	0.0009383471	2.420726e-06	0	0	0	0	0	1	-360	360	1.2702	1.0445	-1.2702	-1.0447;
	187	117	0.042177851	0.022386281	5.77516e-05	0	0	0	0	0	1	-360	360	1.5400	1.2621	-1.5383	-1.2669;
	8	7	0.5806358	0.5806358	0	0	0	0	0	0	1	-360	360	0.1335	0.1113	-0.1333	-0.1111;
	9	251	0.5806358	0.5806358	0	0	0	0	0	0	1	-360	360	0.1335	0.1113	-0.1333	-0.1111;
	136	187	0.0060614876	0.0032171901	8.299631e-06	0	0	0	0	0	1	-360	360	1.5402	1.2614	-1.5400	-1.2621;
	174	136	0.0060614876	0.0032171901	8.299631e-06	0	0	0	0	0	1	-360	360	1.6071	1.3171	-1.6069	-1.3177;
	122	181	0.016478678	0.012890579	4.119977e-05	0	0	0	0	0	1	-360	360	0.0000	-0.0066	-0.0000	0.0025;
	116	174	0.010860165	0.0057641322	1.487017e-05	0	0	0	0	0	1	-360	360	1.6076	1.3158	-1.6071	-1.3171;
	178	116	0.022225455	0.011796364	3.043198e-05	0	0	0	0	0	1	-360	360	1.8092	1.4826	-1.8080	-1.4850;
	6	4	0.5806358	0.5806358	0	0	0	0	0	0	1	-360	360	0.1001	0.0834	-0.1000	-0.0833;
	5	3	0.5806358	0.5806358	0	0	0	0	0	0	1	-360	360	0.1001	0.0834	-0.1000	-0.0833;
	108	178	0.039399669	0.020911736	5.39476e-05	0	0	0	0	0	1	-360	360	1.8114	1.4784	-1.8092	-1.4826;
	182	219	0.0066052893	0.0045872727	9.524618e-06	0	0	0	0	0	1	-360	360	0.1002	0.0790	-0.1002	-0.0800;
	219	147	0.0007378512	0.0005771901	1.844766e-06	0	0	0	0	0	1	-360	360	0.1002	0.0800	-0.1002	-0.0802;
	54	53	0.5806358	0.5806358	0	0	0	0	0	0	1	-360	360	0.1001	0.0834	-0.1000	-0.0833;
	124	182	0.010932893	0.0075927273	1.576488e-05	0	0	0	0	0	1	-360	360	0.1002	0.0775	-0.1002	-0.0790;
	214	123	0.0036621488	0.001943719	5.014361e-06	0	0	0	0	0	1	-360	360	0.1333	0.1055	-0.1333	-0.1060;
	173	125	0.0042631405	0.003334876	1.065865e-05	0	0	0	0	0	1	-360	360	0.3006	0.2456	-0.3006	-0.2466;
	25	24	0.5806358	0.5806358	0	0	0	0	0	0	1	-360	360	0.1001	0.0834	-0.1000	-0.0833;
	23	22	0.5806358	0.5806358	0	0	0	0	0	0	1	-360	360	0.1001	0.0834	-0.1000	-0.0833;
	272	115	0.021865785	0.015185455	3.152977e-05	0	0	0	0	0	1	-360	360	0.4342	0.3498	-0.4341	-0.3529;
	138	249	0.054828149	0.046296446	0.0001086507	0	0	0	0	0	1	-360	360	0.6351	0.5050	-0.6347	-0.5154;
	40	39	0.5806358	0.5806358	0	0	0	0	0	0	1	-360	360	0.1001	0.0834	-0.1000	-0.0833;
	38	37	0.5806358	0.5806358	0	0	0	0	0	0	1	-360	360	0.1001	0.0834	-0.1000	-0.0833;
	186	113	0.0047008264	0.0010353719	2.408384e-06	0	0	0	0	0	1	-360	360	0.0000	-0.0002	-0.0000	0.0000;
	100	186	0.012261983	0.020512066	3.5816e-07	0	0	0	0	0	1	-360	360	0.0000	-0.0003	-0.0000	0.0002;
	135	100	0.016901653	0.028273388	4.9368e-07	0	0	0	0	0	1	-360	360	0.0000	-0.0003	-0.0000	0.0003;
	155	194	0.013385785	0.0071046281	1.832835e-05	0	0	0	0	0	1	-360	360	0.1334	0.1023	-0.1333	-0.1041;
	94	282	0.026972727	0.032963636	4.84484e-07	0	0	0	0	0	1	-360	360	0.0333	0.0277	-0.0333	-0.0278;
	91	92	0.53336462	0.53336462	0	0	0	0	0	0	1	-360	360	-0.1333	-0.1111	0.1335	0.1113;
	104	93	0.018904793	0.013129091	2.726011e-05	0	0	0	0	0	1	-360	360	0.2336	0.1899	-0.2336	-0.1925;
	93	101	0.01593843	0.019478512	2.86286e-07	0	0	0	0	0	1	-360	360	0.2336	0.1925	-0.2336	-0.1925;
	102	103	0.0090726446	0.011087769	1.629628e-07	0	0	0	0	0	1	-360	360	0.0667	0.0542	-0.0667	-0.0542;
	279	137	0.017409669	0.021276529	3.127124e-07	0	0	0	0	0	1	-360	360	0.0333	0.0281	-0.0333	-0.0281;
	101	102	0.01446719	0.017680496	2.598596e-07	0	0	0	0	0	1	-360	360	0.1000	0.0822	-0.1000	-0.0823;
	103	126	0.0084442975	0.0066056198	2.111232e-05	0	0	0	0	0	1	-360	360	0.0667	0.0542	-0.0667	-0.0563;
	211	156	0.018449256	0.012812727	2.660324e-05	0	0	0	0	0	1	-360	360	0.3338	0.2704	-0.3338	-0.2730;
	194	214	0.010481322	0.0055630579	1.435145e-05	0	0	0	0	0	1	-360	360	0.1333	0.1041	-0.1333	-0.1055;
	191	211	0.026645289	0.014142231	3.648379e-05	0	0	0	0	0	1	-360	360	0.3339	0.2668	-0.3338	-0.2704;
	151	191	0.0020204959	0.0010723967	2.766544e-06	0	0	0	0	0	1	-360	360	0.3339	0.2666	-0.3339	-0.2668;
	176	150	0.0027781818	0.0014745455	3.803998e-06	0	0	0	0	0	1	-360	360	0.5008	0.4027	-0.5008	-0.4031;
	118	176	0.040662479	0.021581983	5.567669e-05	0	0	0	0	0	1	-360	360	0.5010	0.3973	-0.5008	-0.4027;
	192	212	0.0053038017	0.0028150413	7.262178e-06	0	0	0	0	0	1	-360	360	0.0000	-0.0036	-0.0000	0.0029;
	212	111	0.021341488	0.01132719	2.922162e-05	0	0	0	0	0	1	-360	360	0.0000	-0.0029	-0.0000	0.0000;
	152	192	0.0058080992	0.0040336364	8.375095e-06	0	0	0	0	0	1	-360	360	0.0000	-0.0044	-0.0000	0.0036;
	120	180	0.01401719	0.0074397521	1.91929e-05	0	0	0	0	0	1	-360	360	0.7352	0.5892	-0.7350	-0.5910;
	11	10	0.5806358	0.5806358	0	0	0	0	0	0	1	-360	360	0.1001	0.0834	-0.1000	-0.0833;
	240	242	0.048856364	0.03393	7.044934e-05	0	0	0	0	0	1	-360	360	1.2043	0.9732	-1.2031	-0.9793;
	206	155	0.013385785	0.0071046281	1.832835e-05	0	0	0	0	0	1	-360	360	0.2667	0.2131	-0.2667	-0.2149;
	242	244	0.0059219835	0.0041127273	8.539314e-06	0	0	0	0	0	1	-360	360	1.1364	0.9234	-1.1362	-0.9241;
	17	16	0.5806358	0.5806358	0	0	0	0	0	0	1	-360	360	0.1335	0.1113	-0.1333	-0.1111;
	19	18	0.5806358	0.5806358	0	0	0	0	0	0	1	-360	360	0.1335	0.1113	-0.1333	-0.1111;
	133	232	0.0012729587	0.001074876	2.522569e-06	0	0	0	0	0	1	-360	360	1.4737	1.1853	-1.4737	-1.1855;
	105	133	0.0027277686	0.0023033058	5.405505e-06	0	0	0	0	0	1	-360	360	1.5405	1.2412	-1.5404	-1.2416;
	205	171	0.10507628	0.068007438	0.0002832828	0	0	0	0	0	1	-360	360	1.5334	1.0747	-1.5297	-1.1005;
	98	205	0.004147438	0.0042317355	1.573194e-05	0	0	0	0	0	1	-360	360	1.5336	1.0733	-1.5334	-1.0747;
	204	171	0.094740909	0.061318182	0.0002554189	0	0	0	0	0	1	-360	360	1.5424	1.1240	-1.5389	-1.1472;
	122	123	0.0008264463	0.0008264463	0	0	0	0	0	0	1	-360	360	-0.0667	-0.0497	0.0667	0.0497;
	139	144	-0	8.264463e-05	0	0	0	0	0	0	1	-360	360	-0.6927	-0.6709	0.6927	0.6709;
	142	139	-0	8.264463e-05	0	0	0	0	0	0	1	-360	360	-0.5590	-0.5580	0.5590	0.5580;
	170	106	0.0008264463	0.0008264463	0	0	0	0	0	0	1	-360	360	1.8743	1.6151	-1.8743	-1.6150;
	171	108	-0	8.264463e-05	0	0	0	0	0	0	1	-360	360	1.8114	1.4784	-1.8114	-1.4784;
	166	167	0.0008264463	0.0008264463	0	0	0	0	0	0	1	-360	360	-0.8019	-0.6545	0.8019	0.6545;
	125	124	-0	8.264463e-05	0	0	0	0	0	0	1	-360	360	0.2004	0.1620	-0.2004	-0.1620;
	131	132	-0	8.264463e-05	0	0	0	0	0	0	1	-360	360	0.9366	0.7536	-0.9366	-0.7536;
	171	107	0.0008264463	0.0008264463	0	0	0	0	0	0	1	-360	360	1.1711	0.9153	-1.1711	-0.9153;
	171	105	-0	8.264463e-05	0	0	0	0	0	0	1	-360	360	1.5405	1.2412	-1.5405	-1.2412;
	129	128	-0	8.264463e-05	0	0	0	0	0	0	1	-360	360	-0.1337	-0.1128	0.1337	0.1128;
	152	151	-0	8.264463e-05	0	0	0	0	0	0	1	-360	360	0.4341	0.3511	-0.4341	-0.3511;
	150	152	-0	8.264463e-05	0	0	0	0	0	0	1	-360	360	0.4341	0.3467	-0.4341	-0.3467;
	121	120	-0	8.264463e-05	0	0	0	0	0	0	1	-360	360	0.8688	0.7020	-0.8688	-0.7020;
	170	171	0.0008264463	0.0008264463	0	0	0	0	0	0	1	-360	360	1.4546	1.3503	-1.4545	-1.3503;
	99	98	0.0008264463	0.0008264463	0	0	0	0	0	0	1	-360	360	1.5336	1.0733	-1.5336	-1.0733;
	99	97	0.0008264463	0.0008264463	0	0	0	0	0	0	1	-360	360	1.5428	1.1202	-1.5428	-1.1202;
	99	96	0.0008264463	0.0008264463	0	0	0	0	0	0	1	-360	360	1.9607	1.6641	-1.9606	-1.6641;
	99	95	0.0008264463	0.0008264463	0	0	0	0	0	0	1	-360	360	1.9794	1.7255	-1.9793	-1.7254;
	287	110	-0	8.264463e-05	0	0	0	0	0	0	1	-360	360	0.0000	0.0000	0.0000	0.0000;
	158	159	0.0008264463	0.0008264463	0	0	0	0	0	0	1	-360	360	0.3006	0.2386	-0.3006	-0.2386;
	285	129	-0	8.264463e-05	0	0	0	0	0	0	1	-360	360	0.0000	0.0000	0.0000	0.0000;
	284	115	0.0008264463	0.0008264463	0	0	0	0	0	0	1	-360	360	0.0000	0.0000	0.0000	0.0000;
	162	161	0.0008264463	0.0008264463	0	0	0	0	0	0	1	-360	360	1.1359	0.9355	-1.1359	-0.9355;
	166	165	0.0008264463	0.0008264463	0	0	0	0	0	0	1	-360	360	0.6683	0.5416	-0.6683	-0.5416;
	170	218	0.0008264463	0.0008264463	0	0	0	0	0	0	1	-360	360	0.6012	0.4760	-0.6012	-0.4760;
	143	112	-0	8.264463e-05	0	0	0	0	0	0	1	-360	360	0.4008	0.3199	-0.4008	-0.3199;
	141	143	-0	8.264463e-05	0	0	0	0	0	0	1	-360	360	0.4008	0.3199	-0.4008	-0.3199;
	145	141	-0	8.264463e-05	0	0	0	0	0	0	1	-360	360	0.5344	0.4327	-0.5344	-0.4327;
	288	145	-0	8.264463e-05	0	0	0	0	0	0	1	-360	360	0.0000	0.0000	0.0000	0.0000;
	144	140	-0	8.264463e-05	0	0	0	0	0	0	1	-360	360	0.1337	0.1128	-0.1337	-0.1128;
	231	230	0.062636364	0.0435	0.0003612786	0	0	0	0	0	1	-360	360	-0.0000	0.0009	0.0000	-0.0368;
	229	283	-0	8.264463e-05	0	0	0	0	0	0	1	-360	360	0.0000	0.0000	0.0000	0.0000;
	231	229	0.004546281	0.003838843	9.009175e-06	0	0	0	0	0	1	-360	360	0.0000	-0.0009	-0.0000	-0.0000;
	171	230	-0	8.264463e-05	0	0	0	0	0	0	1	-360	360	0.0000	-0.0368	-0.0000	0.0368;
	232	233	0.019458083	0.016430248	3.855927e-05	0	0	0	0	0	1	-360	360	1.4737	1.1855	-1.4730	-1.1888;
	233	234	0.027914165	0.023570496	5.531633e-05	0	0	0	0	0	1	-360	360	1.4730	1.1888	-1.4720	-1.1934;
	234	236	0.0010001818	0.0008445455	1.982018e-06	0	0	0	0	0	1	-360	360	1.4053	1.1375	-1.4053	-1.1377;
	236	238	0.029040496	0.020168182	4.187548e-05	0	0	0	0	0	1	-360	360	1.3386	1.0817	-1.3377	-1.0853;
	238	240	-0	8.264463e-05	0	0	0	0	0	0	1	-360	360	1.2710	1.0292	-1.2710	-1.0292;
	244	245	0.0059219835	0.0041127273	8.539314e-06	0	0	0	0	0	1	-360	360	1.0695	0.8682	-1.0694	-0.8690;
	245	246	0.0097940496	0.0068018182	1.412271e-05	0	0	0	0	0	1	-360	360	1.0027	0.8130	-1.0026	-0.8143;
	246	121	0.0043276033	0.0030054545	6.240268e-06	0	0	0	0	0	1	-360	360	1.0026	0.8143	-1.0025	-0.8149;
	249	250	0.018437025	0.0097856198	2.524471e-05	0	0	0	0	0	1	-360	360	0.5345	0.4308	-0.5344	-0.4333;
	170	255	0.019194711	0.010187769	2.628217e-05	0	0	0	0	0	1	-360	360	0.0000	-0.0196	-0.0000	0.0169;
	255	257	0.12438678	0.066019421	0.0001703153	0	0	0	0	0	1	-360	360	0.0000	-0.0169	0.0000	0.0000;
	258	260	0.0015943802	0.0011072727	2.299046e-06	0	0	0	0	0	1	-360	360	0.0000	0.0000	-0.0000	-0.0002;
	261	260	0.0015943802	0.0011072727	2.299046e-06	0	0	0	0	0	1	-360	360	0.5589	0.5612	-0.5589	-0.5614;
	262	261	0.013512066	0.0071716529	1.850126e-05	0	0	0	0	0	1	-360	360	0.5589	0.5594	-0.5589	-0.5612;
	142	262	0.0079719008	0.0055363636	1.149523e-05	0	0	0	0	0	1	-360	360	0.5590	0.5583	-0.5589	-0.5594;
	154	263	0.011160661	0.0077509091	1.609332e-05	0	0	0	0	0	1	-360	360	0.2004	0.1649	-0.2004	-0.1665;
	263	264	0.0015943802	0.0011072727	2.299046e-06	0	0	0	0	0	1	-360	360	0.2004	0.1665	-0.2004	-0.1667;
	264	265	0.0015943802	0.0011072727	2.299046e-06	0	0	0	0	0	1	-360	360	0.2004	0.1667	-0.2004	-0.1670;
	266	267	0.5806358	0.5806358	0	0	0	0	0	0	1	-360	360	0.1001	0.0834	-0.1000	-0.0833;
	265	268	0.0077441322	0.0053781818	1.116679e-05	0	0	0	0	0	1	-360	360	0.1002	0.0824	-0.1002	-0.0835;
	268	269	0.0077441322	0.0053781818	1.116679e-05	0	0	0	0	0	1	-360	360	0.1002	0.0835	-0.1002	-0.0846;
	270	271	0.5806358	0.5806358	0	0	0	0	0	0	1	-360	360	0.1001	0.0834	-0.1000	-0.0833;
	250	272	0.0059219835	0.0041127273	8.539313e-06	0	0	0	0	0	1	-360	360	0.5344	0.4333	-0.5344	-0.4341;
	273	274	0.5806358	0.5806358	0	0	0	0	0	0	1	-360	360	0.1001	0.0834	-0.1000	-0.0833;
	102	279	-0	8.264463e-05	0	0	0	0	0	0	1	-360	360	0.0333	0.0281	-0.0333	-0.0281;
	126	280	-0	8.264463e-05	0	0	0	0	0	0	1	-360	360	0.0667	0.0563	-0.0667	-0.0563;
	156	281	-0	8.264463e-05	0	0	0	0	0	0	1	-360	360	0.2336	0.1884	-0.2336	-0.1884;
	282	135	-0	8.264463e-05	0	0	0	0	0	0	1	-360	360	0.0333	0.0278	-0.0333	-0.0278;
	20	122	0.06	9.7858161	0	0.5	0.65	0.65	1	30	1	-360	360	-0.0667	-0.0556	0.0667	0.0563;
	34	129	0.48	4.9769067	0	1	1.3	1.3	1	30	1	-360	360	-0.1335	-0.1113	0.1337	0.1128;
	14	119	0.61333333	6.5754439	0	0.75	0.975	0.975	1	30	1	-360	360	-0.1001	-0.0834	0.1002	0.0846;
	15	119	0.61333333	6.5754439	0	0.75	0.975	0.975	1	30	1	-360	360	-0.1001	-0.0834	0.1002	0.0846;
	36	130	0.61333333	6.5754439	0	0.75	0.975	0.975	1	30	1	-360	360	-0.1001	-0.0834	0.1002	0.0846;
	50	141	0.48	4.9769067	0	1	1.3	1.3	1	30	1	-360	360	-0.1335	-0.1113	0.1337	0.1128;
	49	140	0.48	4.9769067	0	1	1.3	1.3	1	30	1	-360	360	-0.1335	-0.1113	0.1337	0.1128;
	47	139	0.48	4.9769067	0	1	1.3	1.3	1	30	1	-360	360	-0.1335	-0.1113	0.1337	0.1128;
	88	167	0.48	4.9769067	0	1	1.3	1.3	1	30	1	-360	360	-0.1335	-0.1113	0.1336	0.1128;
	21	123	0.07	9.7857496	0	0.5	0.65	0.65	1	30	1	-360	360	-0.0667	-0.0556	0.0667	0.0563;
	8	117	0.48	4.9769067	0	1	1.3	1.3	1	30	1	-360	360	-0.1335	-0.1113	0.1337	0.1128;
	9	117	0.48	4.9769067	0	1	1.3	1.3	1	30	1	-360	360	-0.1335	-0.1113	0.1337	0.1128;
	43	136	0.07	9.7857496	0	0.5	0.65	0.65	1	30	1	-360	360	-0.0667	-0.0556	0.0667	0.0563;
	6	116	0.61333333	6.5754439	0	0.75	0.975	0.975	1	30	1	-360	360	-0.1001	-0.0834	0.1002	0.0846;
	5	116	0.61333333	6.5754439	0	0.75	0.975	0.975	1	30	1	-360	360	-0.1001	-0.0834	0.1002	0.0846;
	54	147	0.61333333	6.5754439	0	0.75	0.975	0.975	1	30	1	-360	360	-0.1001	-0.0834	0.1002	0.0846;
	25	125	0.61333333	6.5754439	0	0.75	0.975	0.975	1	30	1	-360	360	-0.1001	-0.0834	0.1002	0.0846;
	23	124	0.61333333	6.5754439	0	0.75	0.975	0.975	1	30	1	-360	360	-0.1001	-0.0834	0.1002	0.0846;
	2	115	0.61333333	6.4951057	0	0.75	0.65	0.65	1	30	1	-360	360	-0.0667	-0.0556	0.0667	0.0561;
	45	138	0.07	9.7857496	0	0.5	0.65	0.65	1	30	1	-360	360	-0.0667	-0.0556	0.0667	0.0563;
	65	155	0.07	9.7857496	0	0.5	0.65	0.65	1	30	1	-360	360	-0.0667	-0.0556	0.0667	0.0563;
	27	249	0.61333333	6.5754439	0	0.75	0.975	0.975	1	30	1	-360	360	-0.1001	-0.0834	0.1002	0.0846;
	40	132	0.61333333	6.5754439	0	0.75	0.975	0.975	1	30	1	-360	360	-0.1001	-0.0834	0.1002	0.0846;
	38	131	0.61333333	6.5754439	0	0.75	0.975	0.975	1	30	1	-360	360	-0.1001	-0.0834	0.1002	0.0846;
	42	135	0.12	15.923548	0	0.25	0.325	0.325	1	30	1	-360	360	-0.0333	-0.0278	0.0333	0.0281;
	28	280	0.07	9.7857496	0	0.5	0.65	0.65	1	30	1	-360	360	-0.0667	-0.0556	0.0667	0.0563;
	44	137	0.12	15.923548	0	0.25	0.325	0.325	1	30	1	-360	360	-0.0333	-0.0278	0.0333	0.0281;
	61	151	0.61333333	6.5754439	0	0.75	0.975	0.975	1	30	1	-360	360	-0.1001	-0.0834	0.1002	0.0846;
	59	150	0.07	9.7857496	0	0.5	0.65	0.65	1	30	1	-360	360	-0.0667	-0.0556	0.0667	0.0564;
	11	118	0.61333333	6.5754439	0	0.75	0.975	0.975	1	30	1	-360	360	-0.1001	-0.0834	0.1002	0.0846;
	17	120	0.48	4.9769067	0	1	1.3	1.3	1	30	1	-360	360	-0.1335	-0.1113	0.1337	0.1128;
	64	155	0.07	9.7857496	0	0.5	0.65	0.65	1	30	1	-360	360	-0.0667	-0.0556	0.0667	0.0563;
	19	121	0.48	4.9769067	0	1	1.3	1.3	1	30	1	-360	360	-0.1335	-0.1113	0.1337	0.1128;
	41	133	0.07	9.7857496	0	0.5	0.65	0.65	1	30	1	-360	360	-0.0667	-0.0556	0.0667	0.0563;
	55	148	0.48	4.9769067	0	1	1.3	1.3	1	30	1	-360	360	-0.1342	-0.1120	0.1344	0.1136;
	63	153	0.61333333	10.774544	0	0.75	1.3	1.3	1	30	1	-360	360	-0.1343	-0.1120	0.1345	0.1155;
	67	156	0.61333333	6.5754439	0	0.75	0.975	0.975	1	30	1	-360	360	-0.1001	-0.0834	0.1002	0.0846;
	69	157	0.48	4.9769067	0	1	1.3	1.3	1	30	1	-360	360	-0.1335	-0.1113	0.1337	0.1128;
	71	158	0.61333333	6.3303438	0	0.75	0.975	0.975	1	30	1	-360	360	-0.1000	-0.0833	0.1001	0.0844;
	72	159	0.61333333	6.3303438	0	0.75	0.975	0.975	1	30	1	-360	360	-0.1000	-0.0833	0.1001	0.0844;
	30	127	0.61333333	6.5754439	0	0.75	0.975	0.975	1	30	1	-360	360	-0.1001	-0.0834	0.1002	0.0846;
	74	160	0.48	4.9769067	0	1	0.975	0.975	1	30	1	-360	360	-0.1333	-0.0833	0.1335	0.0846;
	80	163	0.48	4.9769067	0	1	1.3	1.3	1	30	1	-360	360	-0.1333	-0.1111	0.1335	0.1127;
	1	115	0.61333333	6.4951057	0	0.75	0.65	0.65	1	30	1	-360	360	-0.0667	-0.0556	0.0667	0.0561;
	76	161	0.48	4.9769067	0	1	1.3	1.3	1	30	1	-360	360	-0.1001	-0.0834	0.1002	0.0843;
	78	162	0.48	4.9769067	0	1	1.3	1.3	1	30	1	-360	360	-0.1333	-0.1111	0.1335	0.1126;
	82	164	0.07	9.6997474	0	0.5	0.52	0.52	1	30	1	-360	360	-0.0667	-0.0444	0.0667	0.0451;
	86	166	0.48	4.9769067	0	1	1.3	1.3	1	30	1	-360	360	-0.1335	-0.1113	0.1337	0.1128;
	84	165	0.48	4.9769067	0	1	1.3	1.3	1	30	1	-360	360	-0.1335	-0.1113	0.1337	0.1128;
	90	168	0.61333333	6.3303438	0	0.75	0.975	0.975	1	30	1	-360	360	-0.1001	-0.0834	0.1002	0.0845;
	92	169	0.48	4.9769067	0	1	1.3	1.3	1	30	1	-360	360	-0.1335	-0.1113	0.1336	0.1128;
	52	146	0.61333333	6.5754439	0	0.75	0.975	0.975	1	30	1	-360	360	-0.1001	-0.0834	0.1002	0.0846;
	57	149	0.07	9.7857496	0	0.5	0.65	0.65	1	30	1	-360	360	-0.0667	-0.0556	0.0667	0.0563;
	56	149	0.07	9.7857496	0	0.5	0.65	0.65	1	30	1	-360	360	-0.0667	-0.0556	0.0667	0.0563;
	32	128	0.48	4.9769067	0	1	1.3	1.3	1	30	1	-360	360	-0.1335	-0.1113	0.1337	0.1128;
	235	234	0.48	4.9769067	0	1	0.65	0.65	1	30	1	-360	360	-0.0667	-0.0556	0.0667	0.0559;
	237	236	0.48	4.9769067	0	1	0.65	0.65	1	30	1	-360	360	-0.0667	-0.0556	0.0667	0.0559;
	239	238	0.61333333	6.4951057	0	0.75	0.65	0.65	1	30	1	-360	360	-0.0667	-0.0556	0.0667	0.0561;
	241	240	0.61333333	6.4951057	0	0.75	0.65	0.65	1	30	1	-360	360	-0.0667	-0.0556	0.0667	0.0561;
	243	242	0.48	4.9769067	0	1	0.65	0.65	1	30	1	-360	360	-0.0667	-0.0556	0.0667	0.0559;
	247	244	0.48	4.9769067	0	1	0.65	0.65	1	30	1	-360	360	-0.0667	-0.0556	0.0667	0.0559;
	248	245	0.48	4.9769067	0	1	0.65	0.65	1	30	1	-360	360	-0.0667	-0.0556	0.0667	0.0559;
	259	260	0.4	4.9839743	0	1.5	0.975	0.975	1	30	1	-360	360	-0.1860	-0.1837	0.1863	0.1872;
	266	265	0.61333333	6.5754439	0	0.75	0.975	0.975	1	30	1	-360	360	-0.1001	-0.0834	0.1002	0.0846;
	270	269	0.66666667	6.5702508	0	0.75	0.975	0.975	1	30	1	-360	360	-0.1001	-0.0834	0.1002	0.0846;
	273	272	0.48	4.9769067	0	1	0.975	0.975	1	30	1	-360	360	-0.1001	-0.0834	0.1002	0.0843;
	275	161	0.48	4.9769067	0	1	1.3	1.3	1	30	1	-360	360	-0.1000	-0.0833	0.1001	0.0842;
	276	260	0.4	4.9839743	0	1.5	0.975	0.975	1	30	1	-360	360	-0.1860	-0.1837	0.1863	0.1872;
	277	260	0.4	4.9839743	0	1.5	0.975	0.975	1	30	1	-360	360	-0.1860	-0.1837	0.1863	0.1872;
];

%%-----  OPF Data  -----%%
%% generator cost data
%	1	startup	shutdown	n	x1	y1	...	xn	yn
%	2	startup	shutdown	n	c(n-1)	...	c0
mpc.gencost = [
	2	0	0	3	0	1	0;
];

%% bus names
mpc.bus_name = {
	'1008B1T1';
	'1008B1T2';
	'1225E1';
	'1225E2';
	'1225T1';
	'1225T2';
	'1240E1';
	'1240T1';
	'1240T2';
	'1241E1';
	'1241T1';
	'1348E1';
	'1348E2';
	'1348T1';
	'1348T2';
	'1744B1E1';
	'1744B1T1';
	'1744B2E2';
	'1744B2T2';
	'1853B1T1';
	'1853B2T2';
	'1952B1E1';
	'1952B1T1';
	'1952B2E2';
	'1952B2T2';
	'2002E1';
	'2002T1';
	'2497T1';
	'2972E1';
	'2972T1';
	'3294B1E1';
	'3294B1T1';
	'3294B2E2';
	'3294B2T2';
	'3401E1';
	'3401T1';
	'3411B1E1';
	'3411B1T1';
	'3411B2E2';
	'3411B2T2';
	'3488T1';
	'4115T1';
	'4685T1';
	'4737T1';
	'4871T1';
	'5151B1E1';
	'5151B1T1';
	'5151B2E2';
	'5151B2T2';
	'5151B3T3';
	'5842E1';
	'5842T1';
	'6163E1';
	'6163T1';
	'6809T1';
	'739T1';
	'739T2';
	'755B1E1';
	'755B1T1';
	'755B2E2';
	'755B2T2';
	'7584E1';
	'7584T1';
	'776T1';
	'776T2';
	'8007E1';
	'8007T1';
	'8500E1';
	'8500T1';
	'8609E1';
	'8773B1T1';
	'8773B2T2';
	'8845B1E1';
	'8845T1';
	'8972B1E1';
	'8972B1T1';
	'8972B2E2';
	'8972B2T2';
	'9003E1';
	'9003T1';
	'9142E1';
	'9142T1';
	'9266B1E1';
	'9266B1T1';
	'9266B2E2';
	'9266B2T2';
	'9266B3E3';
	'9266B3T3';
	'9469E1';
	'9469T1';
	'9525E1';
	'9525T1';
	'A4333';
	'A4378';
	'ANU1';
	'ANU2';
	'ANU3';
	'ANU4';
	'CV_AG_F';
	'L5321';
	'L6976';
	'L7451';
	'L7452';
	'L8653';
	'OASW1254B2';
	'N555';
	'OBSW1254B2';
	'OCSW1254B2';
	'OS1008B1';
	'OS1241';
	'OS3294B2';
	'OS5151B6';
	'OSW2962';
	'PLASMA';
	'S1008B1';
	'S1225';
	'S1240';
	'S1241';
	'S1348';
	'S1744B1';
	'S1744B2';
	'S1853B1';
	'S1853B2';
	'S1952B1';
	'S1952B2';
	'S2497';
	'S2972';
	'S3294B1';
	'S3294B2';
	'S3401';
	'S3411B1';
	'S3411B2';
	'S3488';
	'S3492';
	'S4115';
	'S4685';
	'S4737';
	'S4871';
	'S5151B1';
	'S5151B2';
	'S5151B3';
	'S5151B4';
	'S5151B5';
	'S5151B6';
	'S5151B7';
	'S5842';
	'S6163';
	'S6809';
	'S739';
	'S755B1';
	'S755B2';
	'S755B3';
	'S7584';
	'S7673';
	'S776';
	'S8007';
	'S8500';
	'S8773B1';
	'S8773B2';
	'S8845';
	'S8972B1';
	'S8972B2';
	'S9003';
	'S9142';
	'S9266B1';
	'S9266B2';
	'S9266B3';
	'S9469';
	'S9525';
	'SW1254B1';
	'SW1254B2';
	'Z1_1008';
	'Z1_1225';
	'Z1_1240';
	'Z1_1241';
	'Z1_1254';
	'Z1_1254B2';
	'Z1_1348';
	'Z1_1744';
	'Z1_1853';
	'Z1_1952';
	'Z1_2972';
	'Z1_3401';
	'Z1_3492';
	'Z1_4115';
	'Z1_4685';
	'Z1_5151';
	'Z1_5151B6';
	'Z1_739';
	'Z1_755B2';
	'Z1_755B3';
	'Z1_7584';
	'Z1_776';
	'Z1_8007';
	'Z1_8500';
	'Z1_8773';
	'Z1_8845';
	'Z1_9142';
	'Z1_9266';
	'Z1_9469';
	'Z1_ANU1';
	'Z1_ANU2';
	'Z1_ANU3';
	'Z1_ANU4';
	'Z2_2972';
	'Z2_3401';
	'Z2_3492';
	'Z2_5151B6';
	'Z2_739';
	'Z2_755B2';
	'Z2_755B3';
	'Z2_7584';
	'Z2_776';
	'Z2_8773';
	'Z2_ANU1';
	'Z2_ANU2';
	'Z3_1254B1';
	'Z3_1952';
	'Z3_7584';
	'Z3_8773';
	'Z3_ANU1';
	'Z3_ANU2';
	'Z4_1254B1';
	'Z4_ANU1';
	'Z4_ANU2';
	'Z5_ANU1';
	'Z5_ANU2';
	'N255';
	'N256';
	'N258';
	'N275';
	'N277';
	'S9746';
	'S9746';
	'S9747';
	'S9747';
	'S9634';
	'S9634';
	'S9635';
	'S9635';
	'S9655A';
	'S9655A';
	'S9655B';
	'S9655C';
	'N301';
	'S9655B';
	'S9655C';
	'S2002';
	'N309';
	'N310';
	'N311';
	'N312';
	'N313';
	'N317';
	'N318';
	'N320';
	'N326';
	'S9770T2';
	'S9770';
	'N339';
	'N340';
	'N342';
	'S8782';
	'S9260';
	'S9260';
	'N352';
	'N354';
	'S7673';
	'S7673';
	'N359';
	'S9427';
	'S9427';
	'N365';
	'S8972T3';
	'S9770T3';
	'S9770T1';
	'N378';
	'N382';
	'N385';
	'N386';
	'653-*CV_AG_F';
	'654-*OS1008B1';
	'655-*OS3294B2';
	'657-*S1241';
	'658-*S5151B2';
};
